sol/case2746wop.m
function mpc = case2746wop
%CASE2746WOP

%% MATPOWER Case Format : Version 2
mpc.version = '2';

%%-----  Power Flow Data  -----%%
%% system MVA base
mpc.baseMVA = 100;

%% bus data
%	bus_i	type	Pd	Qd	Gs	Bs	area	Vm	Va	baseKV	zone	Vmax	Vmin	lam_P	lam_Q	mu_Vmax	mu_Vmin
mpc.bus = [
	1	1	0	0	0	0	1	1.10030788	-5.82086737	220	1	1.11	0.95	91.0821	0.1613	0.0000	0.0000;
	2	1	0	0	0	0	1	1.10397449	-2.52294917	220	1	1.11	0.95	90.2443	0.0982	0.0000	0.0000;
	3	1	0	0	0	0	1	1.07214954	-22.8411334	220	1	1.11	0.95	99.5467	0.0558	0.0000	0.0000;
	4	1	0	0	0	0	1	1.09782492	-8.86699384	220	1	1.11	0.95	92.5423	0.2188	0.0000	0.0000;
	5	1	0	0	0	0	1	1.09785349	-8.87359144	220	1	1.11	0.95	92.5438	0.2185	0.0000	0.0000;
	6	1	0	0	0	0	1	1.07826128	-17.0393218	220	1	1.11	0.95	95.9011	0.0748	0.0000	0.0000;
	7	1	0	0	0	0	1	1.07828775	-17.0357944	220	1	1.11	0.95	95.8983	0.0743	0.0000	0.0000;
	8	1	0	0	0	-50	1	1.02966804	-14.805042	400	1	1.05	0.95	95.4104	-0.1470	0.0000	0.0000;
	9	1	0	0	0	0	1	1.02966611	-14.8073853	400	1	1.05	0.95	95.4122	-0.1465	0.0000	0.0000;
	10	1	0	0	0	0	1	1.07618167	-17.0593901	220	1	1.11	0.95	96.3090	0.1459	0.0000	0.0000;
	11	1	0	0	0	0	1	1.0761154	-17.0729902	220	1	1.11	0.95	96.3114	0.1454	0.0000	0.0000;
	12	1	0	0	0	0	1	1.076125	-17.0657074	220	1	1.11	0.95	96.3081	0.1431	0.0000	0.0000;
	13	1	0	0	0	-50	1	1.02469841	-13.0972311	400	1	1.05	0.95	94.7427	0.1254	0.0000	0.0000;
	14	1	0	0	0	0	1	1.02478277	-13.0916182	400	1	1.05	0.95	94.7400	0.1241	0.0000	0.0000;
	15	1	0	0	0	0	1	1.03905257	-16.1288803	400	1	1.05	0.95	95.2253	-1.3522	0.0000	0.0000;
	16	1	0	0	0	0	1	1.03905257	-16.1288803	400	1	1.05	0.95	95.2253	-1.3522	0.0000	0.0000;
	17	2	2.302	31	0	0	1	1.1000624	-18.8356227	220	1	1.11	0.95	97.2730	-0.0001	0.0000	0.0000;
	18	2	9.7	40	0	0	1	1.10019863	-18.8375703	220	1	1.11	0.95	97.2742	0.0000	0.0000	0.0000;
	19	1	0	0	0	0	1	1.09974274	-8.05905893	220	1	1.11	0.95	92.1758	0.2166	0.0000	0.0000;
	20	1	0	0	0	0	1	1.09973409	-8.05533462	220	1	1.11	0.95	92.1767	0.2169	0.0000	0.0000;
	21	1	0	0	0	0	1	1.09059918	-18.7006703	220	1	1.11	0.95	97.1554	0.0152	0.0000	0.0000;
	22	1	0	0	0	0	1	1.09059918	-18.7006703	220	1	1.11	0.95	97.1554	0.0152	0.0000	0.0000;
	23	1	0	0	0	0	1	1.07645774	-16.9972061	220	1	1.11	0.95	96.2379	0.0722	0.0000	0.0000;
	24	1	0	0	0	0	1	1.10019162	-5.99075462	220	1	1.11	0.95	91.4980	0.1739	0.0000	0.0000;
	25	1	0	0	0	-50	1	1.02077279	-17.6162729	400	1	1.05	0.95	97.1134	0.9930	0.0000	0.0000;
	26	2	28.565	42.054	0	0	1	1.10940729	-5.6337366	220	1	1.11	0.95	90.9786	-0.0000	0.0000	0.0000;
	27	2	85.005	122.06	0	0	1	1.11	-2.29059736	220	1	1.11	0.95	90.1369	-0.0000	1243.4399	0.0000;
	28	3	44.783	80	0	0	1	1.04835675	-4.412957	400	1	1.05	0.95	91.1948	-0.0000	0.0000	0.0000;
	29	2	60.097	90	0	0	1	1.04834525	-4.40376414	400	1	1.05	0.95	91.1900	-0.0017	0.0000	0.0000;
	30	1	0	0	0	0	1	1.08039857	-18.1932544	220	1	1.11	0.95	97.1024	0.1711	0.0000	0.0000;
	31	1	0	0	0	0	1	1.04896887	-5.41180365	400	1	1.05	0.95	91.2216	-0.3184	0.0000	0.0000;
	32	1	0	0	0	0	1	1.07477535	-17.2171767	220	1	1.11	0.95	96.3760	0.1667	0.0000	0.0000;
	33	1	0	0	0	0	1	1.10019521	-5.98988267	220	1	1.11	0.95	91.4978	0.1738	0.0000	0.0000;
	34	1	0	0	0	0	1	1.10008456	-11.7367075	220	1	1.11	0.95	93.7481	0.1881	0.0000	0.0000;
	35	1	0	0	0	0	1	1.09302692	-14.6750604	220	2	1.11	0.95	94.7772	-0.8640	0.0000	0.0000;
	36	1	0	0	0	0	1	1.0813275	-15.09197	220	2	1.11	0.95	95.3321	-0.8150	0.0000	0.0000;
	37	1	0	0	0	0	1	1.09054763	-14.1140245	220	2	1.11	0.95	94.6959	-1.0744	0.0000	0.0000;
	38	1	0	0	0	0	1	1.09052255	-14.116903	220	2	1.11	0.95	94.6974	-1.0740	0.0000	0.0000;
	39	1	0	0	0	0	1	1.08536502	-15.7145583	220	2	1.11	0.95	95.6178	-0.6548	0.0000	0.0000;
	40	1	0	0	0	0	1	1.11	-13.431122	220	2	1.11	0.95	94.1378	-3.4888	20320.7219	0.0000;
	41	1	0	0	0	0	1	1.10990948	-13.434134	220	2	1.11	0.95	94.1398	-3.4750	0.0000	0.0000;
	42	1	0	0	0	0	1	1.026438	-13.4866617	400	2	1.05	0.95	94.2389	-2.4002	0.0000	0.0000;
	43	2	12	0	0	0	1	1.09838338	-13.3322503	220	2	1.11	0.95	94.2458	-0.6868	0.0000	0.0000;
	44	2	24	0	0	0	1	1.09833135	-13.3168415	220	2	1.11	0.95	94.2418	-0.6886	0.0000	0.0000;
	45	2	20	0	0	0	1	1.03256557	-13.1789855	400	2	1.05	0.95	94.5663	-0.5861	0.0000	0.0000;
	46	1	0	0	0	0	1	1.03254074	-13.1810333	400	2	1.05	0.95	94.5658	-0.5864	0.0000	0.0000;
	47	1	0	0	0	0	1	1.10873268	-13.8615574	220	2	1.11	0.95	94.4232	-3.2932	0.0000	0.0000;
	48	1	0	0	0	0	1	1.02847474	-17.1713652	400	2	1.05	0.95	95.6122	-0.6754	0.0000	0.0000;
	49	1	0	0	0	0	1	1.02845069	-17.1770265	400	2	1.05	0.95	95.6147	-0.6744	0.0000	0.0000;
	50	1	0	0	0	0	1	1.0283788	-13.6717286	400	2	1.05	0.95	94.6728	-0.6382	0.0000	0.0000;
	51	1	0	0	0	0	1	1.08546117	-14.8258266	220	2	1.11	0.95	95.0386	-0.6616	0.0000	0.0000;
	52	1	0	0	0	0	1	1.08546048	-14.8226457	220	2	1.11	0.95	95.0386	-0.6610	0.0000	0.0000;
	53	1	0	0	0	0	1	1.03679404	-13.9524406	400	2	1.05	0.95	94.6633	-1.0809	0.0000	0.0000;
	54	1	0	0	0	0	1	1.0368197	-13.9527779	400	2	1.05	0.95	94.6630	-1.0821	0.0000	0.0000;
	55	2	12	0	0	0	1	1.09338096	-13.2397844	220	2	1.11	0.95	94.2789	-1.1715	0.0000	0.0000;
	56	2	12	0	0	0	1	1.09335399	-13.2394906	220	2	1.11	0.95	94.2761	-1.1740	0.0000	0.0000;
	57	2	12	0	0	0	1	1.03993383	-13.5929029	400	2	1.05	0.95	94.4683	-1.2184	0.0000	0.0000;
	58	2	12	0	0	0	1	1.0399188	-13.5976532	400	2	1.05	0.95	94.4700	-1.2194	0.0000	0.0000;
	59	2	170.733	62	0	0	1	1.09052224	-14.3588821	220	2	1.11	0.95	94.7107	-0.7172	0.0000	0.0000;
	60	1	0	0	0	0	1	1.0905854	-14.3548527	220	2	1.11	0.95	94.7089	-0.7176	0.0000	0.0000;
	61	1	0	0	0	0	1	1.10391709	-13.9829247	220	2	1.11	0.95	94.4565	-2.8079	0.0000	0.0000;
	62	1	0	0	0	0	1	1.09720555	-14.1398425	220	2	1.11	0.95	94.7062	-1.2541	0.0000	0.0000;
	63	1	0	0	0	0	1	1.09717668	-14.1415761	220	2	1.11	0.95	94.7065	-1.2500	0.0000	0.0000;
	64	1	0	0	0	0	1	1.03934353	-14.8272385	400	2	1.05	0.95	94.8442	-0.9533	0.0000	0.0000;
	65	1	0	0	0	0	1	1.03930201	-14.8380998	400	2	1.05	0.95	94.8481	-0.9518	0.0000	0.0000;
	66	1	0	0	0	0	1	1.08860463	-14.850104	220	2	1.11	0.95	95.0066	-0.9722	0.0000	0.0000;
	67	1	0	0	0	0	1	1.09001697	-14.7001952	220	2	1.11	0.95	94.9118	-0.9962	0.0000	0.0000;
	68	1	0	0	0	0	1	1.08472991	-14.1342344	220	2	1.11	0.95	94.7338	-0.5649	0.0000	0.0000;
	69	1	0	0	0	0	1	1.09843017	-9.21998412	220	3	1.11	0.95	92.5571	-0.4343	0.0000	0.0000;
	70	1	6.8	0	0	0	1	1.09763771	-14.3998177	220	3	1.11	0.95	94.8493	-0.6607	0.0000	0.0000;
	71	1	11.331	2.43	0	0	1	1.09750819	-14.4076229	220	3	1.11	0.95	94.8540	-0.6590	0.0000	0.0000;
	72	1	0	0	0	0	1	1.09464368	-13.2210255	220	3	1.11	0.95	94.4236	0.0530	0.0000	0.0000;
	73	1	0	0	0	0	1	1.09465547	-13.2055289	220	3	1.11	0.95	94.4181	0.0522	0.0000	0.0000;
	74	1	0	0	0	0	1	1.10516659	-10.7588392	220	3	1.11	0.95	92.8422	-0.0063	0.0000	0.0000;
	75	1	0	0	0	0	1	1.10513928	-10.7638618	220	3	1.11	0.95	92.8443	-0.0063	0.0000	0.0000;
	76	1	0	0	0	0	1	1.09773799	-17.6011819	220	3	1.11	0.95	96.4785	-0.1588	0.0000	0.0000;
	77	1	0	0	0	0	1	1.09770212	-17.6130556	220	3	1.11	0.95	96.4835	-0.1581	0.0000	0.0000;
	78	2	26.999	69.999	0	0	1	1.0964708	-12.1523844	220	3	1.11	0.95	93.8707	-0.0000	0.0000	0.0000;
	79	2	8.999	20.999	0	0	1	1.09787066	-12.7300006	220	3	1.11	0.95	94.1067	-0.1269	0.0000	0.0000;
	80	1	10.085	1.376	0	0	1	1.09317524	-12.5254412	220	3	1.11	0.95	94.2350	0.1608	0.0000	0.0000;
	81	1	0	0	0	0	1	1.09317652	-12.5287843	220	3	1.11	0.95	94.2368	0.1604	0.0000	0.0000;
	82	2	34.999	107.999	0	0	1	1.04439795	-6.48257827	400	3	1.05	0.95	91.2718	-0.2730	0.0000	0.0000;
	83	1	0	0	0	0	1	1.10496153	-10.3084864	220	3	1.11	0.95	92.2221	0.1082	0.0000	0.0000;
	84	1	0	0	0	0	1	1.10265246	-11.3905165	220	3	1.11	0.95	93.1699	0.0061	0.0000	0.0000;
	85	1	0	0	0	0	1	1.10261294	-11.3997672	220	3	1.11	0.95	93.1748	0.0058	0.0000	0.0000;
	86	1	44.148	10.561	0	0	1	1.09841149	-9.29663981	220	3	1.11	0.95	92.5104	-0.3928	0.0000	0.0000;
	87	1	0	0	0	0	1	1.09839854	-9.30177719	220	3	1.11	0.95	92.5121	-0.3927	0.0000	0.0000;
	88	1	0	0	0	0	1	1.09378433	-11.324485	220	3	1.11	0.95	93.2254	0.1169	0.0000	0.0000;
	89	1	0	0	0	0	1	1.09377261	-11.331292	220	3	1.11	0.95	93.2288	0.1172	0.0000	0.0000;
	90	1	0	0	0	0	1	1.10062924	-8.85848637	220	3	1.11	0.95	92.3128	-0.4183	0.0000	0.0000;
	91	1	0	0	0	0	1	1.10063666	-8.85421199	220	3	1.11	0.95	92.3119	-0.4216	0.0000	0.0000;
	92	1	0	0	0	0	1	1.04943448	-6.66809502	400	3	1.05	0.95	91.9133	-0.2191	0.0000	0.0000;
	93	1	0	0	0	0	1	1.04943361	-6.66836585	400	3	1.05	0.95	91.9130	-0.2190	0.0000	0.0000;
	94	1	0	0	0	0	1	1.10180275	-10.7179911	220	3	1.11	0.95	92.6744	0.0146	0.0000	0.0000;
	95	1	0	0	0	0	1	1.10184365	-10.7182085	220	3	1.11	0.95	92.6737	0.0147	0.0000	0.0000;
	96	1	0	0	0	0	1	1.10580602	-10.4969378	220	3	1.11	0.95	92.5404	0.0805	0.0000	0.0000;
	97	1	0	0	0	0	1	1.10580872	-10.4960548	220	3	1.11	0.95	92.5389	0.0805	0.0000	0.0000;
	98	1	17.111	6.317	0	0	1	1.09630183	-12.4420916	220	3	1.11	0.95	93.9450	-0.3262	0.0000	0.0000;
	99	1	0	0	0	0	1	1.09629764	-12.4380369	220	3	1.11	0.95	93.9435	-0.3281	0.0000	0.0000;
	100	1	0	0	0	0	1	1.09767788	-14.3820901	220	3	1.11	0.95	94.8406	-0.6614	0.0000	0.0000;
	101	1	0	0	0	0	1	1.09766701	-14.3838873	220	3	1.11	0.95	94.8412	-0.6601	0.0000	0.0000;
	102	1	0	0	0	0	1	1.09687424	-16.8196229	220	3	1.11	0.95	96.1684	-0.0689	0.0000	0.0000;
	103	1	0	0	0	0	1	1.09682081	-16.8074896	220	3	1.11	0.95	96.1654	-0.0677	0.0000	0.0000;
	104	2	13.999	39.999	0	0	1	1.10586036	-10.7627688	220	3	1.11	0.95	92.7800	-0.0000	0.0000	0.0000;
	105	2	0	0	0	0	1	1.10585954	-10.775414	220	3	1.11	0.95	92.7824	-0.0004	0.0000	0.0000;
	106	2	6.999	17.999	0	0	1	1.09984814	-10.5705313	220	3	1.11	0.95	92.7145	-0.0000	0.0000	0.0000;
	107	2	7.999	14.999	0	0	1	1.09974937	-10.5729697	220	3	1.11	0.95	92.7171	-0.0000	0.0000	0.0000;
	108	1	52.726	17.138	0	0	1	1.09565269	-11.9603987	220	3	1.11	0.95	93.7093	-0.5268	0.0000	0.0000;
	109	1	56.444	10.902	0	0	1	1.0956863	-11.9735937	220	3	1.11	0.95	93.7135	-0.5317	0.0000	0.0000;
	110	1	0	0	0	0	1	1.09390675	-13.5823686	220	3	1.11	0.95	94.7282	-0.0903	0.0000	0.0000;
	111	1	0	0	0	0	1	1.0939245	-11.6392523	220	3	1.11	0.95	93.5805	0.3043	0.0000	0.0000;
	112	1	0	0	0	0	1	1.09393441	-11.6436591	220	3	1.11	0.95	93.5826	0.3037	0.0000	0.0000;
	113	1	0	0	0	0	1	1.09286096	-12.7641768	220	3	1.11	0.95	94.3929	0.1268	0.0000	0.0000;
	114	1	0	0	0	0	1	1.09288666	-12.7596203	220	3	1.11	0.95	94.3901	0.1259	0.0000	0.0000;
	115	1	0	0	0	0	1	1.04009049	-9.19476759	400	3	1.05	0.95	92.5501	-0.1809	0.0000	0.0000;
	116	2	0	0	0	0	1	1.09576738	-12.5007638	220	3	1.11	0.95	94.0349	-0.1170	0.0000	0.0000;
	117	2	7.999	14.999	0	0	1	1.09572698	-12.4911484	220	3	1.11	0.95	94.0326	-0.1165	0.0000	0.0000;
	118	2	5.499	9.999	0	0	1	1.09992379	-13.1792718	220	3	1.11	0.95	94.4855	-0.2633	0.0000	0.0000;
	119	1	0	0	0	0	1	1.09991057	-13.1846237	220	3	1.11	0.95	94.4879	-0.2636	0.0000	0.0000;
	120	1	0	0	0	0	1	1.04297123	-13.5766293	400	3	1.05	0.95	94.4469	-0.9199	0.0000	0.0000;
	121	1	0	0	0	0	1	1.04300745	-13.5694835	400	3	1.05	0.95	94.4437	-0.9203	0.0000	0.0000;
	122	1	0	0	0	0	1	1.04338811	-9.34726288	400	3	1.05	0.95	92.6527	-0.2913	0.0000	0.0000;
	123	1	0	0	0	0	1	1.04342308	-9.34569594	400	3	1.05	0.95	92.6528	-0.2921	0.0000	0.0000;
	124	1	0	0	0	0	1	1.09423247	-13.6120972	220	3	1.11	0.95	94.7768	-0.1069	0.0000	0.0000;
	125	2	19.213	21.474	0	0	1	1.11	-9.75730923	220	3	1.11	0.95	92.2939	0.0000	305.5570	0.0000;
	126	2	30.672	33.602	0	0	1	1.10994826	-9.76545175	220	3	1.11	0.95	92.2996	0.0014	0.0000	0.0000;
	127	2	27.999	65.999	0	0	1	1.04011549	-8.12102168	400	3	1.05	0.95	92.1669	-0.1193	0.0000	0.0000;
	128	1	0	0	0	0	1	1.04011539	-8.1310056	400	3	1.05	0.95	92.1705	-0.1195	0.0000	0.0000;
	129	1	0	0	0	0	1	1.09805017	-9.40362809	220	3	1.11	0.95	92.5582	-0.3905	0.0000	0.0000;
	130	1	0	0	0	0	1	1.09805503	-9.40253435	220	3	1.11	0.95	92.5564	-0.3899	0.0000	0.0000;
	131	1	0	0	0	0	1	1.09932637	-9.22177365	220	3	1.11	0.95	92.4670	-0.3819	0.0000	0.0000;
	132	2	271.999	-62.001	0	0	1	1.09907915	-18.4324037	220	3	1.11	0.95	96.8428	-0.2371	0.0000	0.0000;
	133	2	266.5	-24.8	0	0	1	1.09698411	-18.4171034	220	3	1.11	0.95	96.8418	-0.1871	0.0000	0.0000;
	134	2	14.931	12.88	0	0	1	1.10647027	-13.4984352	220	4	1.11	0.95	94.6140	0.0000	0.0000	0.0000;
	135	2	8.013	6.525	0	0	1	1.10637816	-13.5073229	220	4	1.11	0.95	94.6168	0.0011	0.0000	0.0000;
	136	1	0	0	0	0	1	1.08156841	-16.2592106	220	4	1.11	0.95	95.3071	0.0673	0.0000	0.0000;
	137	1	0	0	0	0	1	1.08455473	-15.757304	220	4	1.11	0.95	95.0163	0.0195	0.0000	0.0000;
	138	1	0	0	0	0	1	1.04503527	-13.3675534	400	4	1.05	0.95	93.9002	-0.5746	0.0000	0.0000;
	139	1	0	0	0	0	1	1.04505796	-13.3636811	400	4	1.05	0.95	93.8977	-0.5758	0.0000	0.0000;
	140	1	0	0	0	0	1	1.10447402	-22.6032019	220	4	1.11	0.95	99.9472	-2.0085	0.0000	0.0000;
	141	1	0	0	0	0	1	1.08451511	-24.9981195	220	4	1.11	0.95	101.9942	-1.4766	0.0000	0.0000;
	142	1	0	0	0	0	1	1.08451511	-24.9981195	220	4	1.11	0.95	101.9942	-1.4766	0.0000	0.0000;
	143	1	0	0	0	0	1	1.08681	-23.5797101	220	4	1.11	0.95	100.4323	-1.3123	0.0000	0.0000;
	144	1	0	0	0	0	1	1.09050136	-14.9270648	220	4	1.11	0.95	93.9021	-0.1467	0.0000	0.0000;
	145	1	0	0	0	0	1	1.09050136	-14.9270648	220	4	1.11	0.95	93.9021	-0.1467	0.0000	0.0000;
	146	2	55.255	6.955	0	0	1	1.1010366	-16.9331082	220	4	1.11	0.95	96.4200	-0.0201	0.0000	0.0000;
	147	2	10.077	8.4	0	0	1	1.10103713	-16.9424652	220	4	1.11	0.95	96.4222	-0.0215	0.0000	0.0000;
	148	2	11.5	6.86	0	0	1	1.08477314	-24.1058865	220	4	1.11	0.95	101.4545	-1.5648	0.0000	0.0000;
	149	1	4.423	1.347	0	0	1	1.084731	-24.1202808	220	4	1.11	0.95	101.4614	-1.5649	0.0000	0.0000;
	150	2	12.633	6.828	0	0	1	1.02094797	-25.8016163	400	4	1.05	0.95	101.8476	-1.7347	0.0000	0.0000;
	151	2	12.397	10.045	0	0	1	1.0209326	-25.8077713	400	4	1.05	0.95	101.8501	-1.7351	0.0000	0.0000;
	152	1	0	0	0	0	1	1.08949396	-22.6657664	220	4	1.11	0.95	100.3547	-1.5498	0.0000	0.0000;
	153	1	0	0	0	0	1	1.08223315	-21.6819677	220	4	1.11	0.95	99.1642	-0.6387	0.0000	0.0000;
	154	1	0	0	0	0	1	1.08226456	-21.6755116	220	4	1.11	0.95	99.1606	-0.6387	0.0000	0.0000;
	155	2	33.593	44.976	0	0	1	1.08912283	-14.0326704	220	4	1.11	0.95	94.1857	-0.0000	0.0000	0.0000;
	156	2	33.832	45.07	0	0	1	1.08898965	-14.0888564	220	4	1.11	0.95	94.4089	-0.0000	0.0000	0.0000;
	157	1	0	0	0	0	1	1.08912283	-14.0326704	220	4	1.11	0.95	94.1857	-0.0000	0.0000	0.0000;
	158	1	0	0	0	0	1	1.03408083	-13.0566596	400	4	1.05	0.95	94.1403	-0.1126	0.0000	0.0000;
	159	2	8.687	17.49	0	0	1	1.03405585	-13.0544383	400	4	1.05	0.95	94.1403	-0.1118	0.0000	0.0000;
	160	1	0	0	0	0	1	1.08423764	-25.0609102	220	4	1.11	0.95	102.0427	-1.6438	0.0000	0.0000;
	161	1	0	0	0	0	1	1.08423764	-25.0609102	220	4	1.11	0.95	102.0427	-1.6438	0.0000	0.0000;
	162	1	0	0	0	0	1	1.05	-12.5799622	400	4	1.05	0.95	93.1611	-2.0075	8241.4853	0.0000;
	163	1	0	0	0	0	1	1.04835581	-11.6532253	400	4	1.05	0.95	92.9843	-0.9509	0.0000	0.0000;
	164	1	0	0	0	0	1	1.04835752	-11.659479	400	4	1.05	0.95	92.9875	-0.9497	0.0000	0.0000;
	165	2	5.495	9.587	0	0	1	1.10076838	-17.1778806	220	4	1.11	0.95	96.5421	-0.0000	0.0000	0.0000;
	166	2	10.099	4.886	0	0	1	1.10071019	-17.194151	220	4	1.11	0.95	96.5514	-0.0000	0.0000	0.0000;
	167	1	14.36	13.623	0	0	1	1.10074002	-17.1791509	220	4	1.11	0.95	96.5425	0.0005	0.0000	0.0000;
	168	1	0	0	0	0	1	1.1079187	-28.1577504	220	4	1.11	0.95	103.3358	-2.2236	0.0000	0.0000;
	169	1	0	0	0	0	1	1.08730375	-25.0949686	220	4	1.11	0.95	102.0453	-1.5179	0.0000	0.0000;
	170	1	0	0	0	0	1	1.11	-23.5893838	220	4	1.11	0.95	100.5547	-2.7767	11500.4569	0.0000;
	171	1	0	0	0	0	1	1.10989701	-23.5885302	220	4	1.11	0.95	100.5555	-2.7651	0.0000	0.0000;
	172	1	0	0	0	0	1	0.963979208	-24.6681966	400	4	1.05	0.95	100.9595	-2.1401	0.0000	0.0000;
	173	1	0	0	0	0	1	0.963979208	-24.6681966	400	4	1.05	0.95	100.9595	-2.1401	0.0000	0.0000;
	174	1	0	0	0	0	1	1.06969676	-20.9736578	220	4	1.11	0.95	99.3659	-0.3418	0.0000	0.0000;
	175	1	0	0	0	0	1	1.06970877	-20.9717311	220	4	1.11	0.95	99.3660	-0.3416	0.0000	0.0000;
	176	1	0	0	0	0	1	1.10824591	-23.8228846	220	4	1.11	0.95	100.6710	-2.6873	0.0000	0.0000;
	177	1	0	0	0	0	1	1.08601222	-15.696934	220	4	1.11	0.95	94.9145	-0.0118	0.0000	0.0000;
	178	1	0	0	0	0	1	1.08604528	-15.6919169	220	4	1.11	0.95	94.9130	-0.0119	0.0000	0.0000;
	179	1	0	0	0	0	1	1.09175615	-14.7013036	220	4	1.11	0.95	94.3309	0.0115	0.0000	0.0000;
	180	1	0	0	0	0	1	1.09175615	-14.7013036	220	4	1.11	0.95	94.3309	0.0115	0.0000	0.0000;
	181	1	0	0	0	0	1	1.0678427	-21.7849143	220	4	1.11	0.95	99.6397	-0.3538	0.0000	0.0000;
	182	1	0	0	0	0	1	1.06385108	-24.767029	220	5	1.11	0.95	101.1163	0.8308	0.0000	0.0000;
	183	1	0	0	0	0	1	1.11	-31.7242659	220	5	1.11	0.95	104.4455	-1.8026	1842.3352	0.0000;
	184	1	0	0	0	0	1	1.02755092	-31.3473809	400	5	1.05	0.95	104.1524	-1.2726	0.0000	0.0000;
	185	1	0	0	0	0	1	1.02755358	-31.3403873	400	5	1.05	0.95	104.1489	-1.2735	0.0000	0.0000;
	186	1	0	0	0	0	1	1.01791284	-33.6656131	400	5	1.05	0.95	105.1111	0.3103	0.0000	0.0000;
	187	1	0	0	0	0	1	1.01793562	-33.6732104	400	5	1.05	0.95	105.1150	0.3088	0.0000	0.0000;
	188	1	0	0	0	0	1	1.07790172	-31.8824779	220	5	1.11	0.95	105.5366	-0.0610	0.0000	0.0000;
	189	1	0	0	0	0	1	1.07795298	-31.8859041	220	5	1.11	0.95	105.5372	-0.0632	0.0000	0.0000;
	190	1	0	0	0	0	1	1.0608216	-26.8593233	220	5	1.11	0.95	102.4076	1.1809	0.0000	0.0000;
	191	1	0	0	0	0	1	1.06087232	-26.8571245	220	5	1.11	0.95	102.4063	1.1794	0.0000	0.0000;
	192	1	0	0	0	0	1	1.00608213	-26.382212	400	5	1.05	0.95	101.8017	1.2120	0.0000	0.0000;
	193	1	0	0	0	0	1	1.06937592	-24.3646022	220	5	1.11	0.95	100.9068	0.8353	0.0000	0.0000;
	194	1	0	0	0	0	1	1.06936735	-24.3617905	220	5	1.11	0.95	100.9069	0.8360	0.0000	0.0000;
	195	1	0	0	0	0	1	1.01837639	-32.8064236	400	5	1.05	0.95	104.9591	0.3684	0.0000	0.0000;
	196	1	0	0	0	0	1	1.01835711	-32.804104	400	5	1.05	0.95	104.9586	0.3689	0.0000	0.0000;
	197	1	0	0	0	0	1	1.06922148	-26.7133186	220	5	1.11	0.95	103.0262	0.7489	0.0000	0.0000;
	198	1	0	0	0	0	1	1.06918479	-26.7064226	220	5	1.11	0.95	103.0216	0.7497	0.0000	0.0000;
	199	1	0	0	0	0	1	1.02663626	-32.8831755	400	5	1.05	0.95	104.7758	-0.7574	0.0000	0.0000;
	200	1	0	0	0	0	1	1.02666451	-32.8701904	400	5	1.05	0.95	104.7707	-0.7596	0.0000	0.0000;
...
];

%% generator data
%	bus	Pg	Qg	Qmax	Qmin	Vg	mBase	status	Pmax	Pmin	Pc1	Pc2	Qc1min	Qc1max	Qc2min	Qc2max	ramp_agc	ramp_10	ramp_30	ramp_q	apf	mu_Pmax	mu_Pmin	mu_Qmax	mu_Qmin
mpc.gen = [
	17	140	-9.61480319	120	-10	1.1000624	233.2	1	200	140	0	0	0	0	0	0	0	0	0	0	0	0.0000	15.5070	0.0000	0.0000;
	18	140	89.6651453	120	-10	1.10019863	233.2	1	200	140	0	0	0	0	0	0	0	0	0	0	0	0.0000	15.5058	0.0000	0.0000;
	26	0	0	220	-10	1.09091	430.5	0	370	290	0	0	0	0	0	0	0	0	0	0	0	0.0000	0.0000	0.0000	0.0000;
	26	360	104.688131	220	-10	1.10940729	421.9	1	360	290	0	0	0	0	0	0	0	0	0	0	0	14.8786	0.0000	0.0000	0.0000;
	27	360	51.0873812	220	-10	1.11	421.9	1	360	290	0	0	0	0	0	0	0	0	0	0	0	14.0369	0.0000	0.0000	0.0000;
	27	370	51.0873812	220	-10	1.11	430.5	1	370	290	0	0	0	0	0	0	0	0	0	0	0	14.0369	0.0000	0.0000	0.0000;
	27	370	51.0873812	220	-10	1.11	430.5	1	370	290	0	0	0	0	0	0	0	0	0	0	0	14.0369	0.0000	0.0000	0.0000;
	28	0	0	220	-10	1.0325	430.5	0	370	290	0	0	0	0	0	0	0	0	0	0	0	0.0000	0.0000	0.0000	0.0000;
	28	370	-4.20727376	220	-10	1.04835675	430.5	1	370	290	0	0	0	0	0	0	0	0	0	0	0	15.0948	0.0000	0.0000	0.0000;
	28	370	-4.20727376	220	-10	1.04835675	430.5	1	370	290	0	0	0	0	0	0	0	0	0	0	0	15.0948	0.0000	0.0000	0.0000;
	29	370	-9.99927321	220	-10	1.04834525	430.5	1	370	290	0	0	0	0	0	0	0	0	0	0	0	15.0900	0.0000	0.0000	0.0017;
	29	370	-9.99927321	220	-10	1.04834525	430.5	1	370	290	0	0	0	0	0	0	0	0	0	0	0	15.0900	0.0000	0.0000	0.0017;
	29	370	-9.99927321	220	-10	1.04834525	430.5	1	370	290	0	0	0	0	0	0	0	0	0	0	0	15.0900	0.0000	0.0000	0.0017;
	43	135	-19.9999982	120	-20	1.09838338	246.2	1	215	135	0	0	0	0	0	0	0	0	0	0	0	0.0000	7.8042	0.0000	0.6868;
	43	0	0	120	-20	1.09091	275.3	0	247.8	135	0	0	0	0	0	0	0	0	0	0	0	0.0000	0.0000	0.0000	0.0000;
	43	0	0	120	-20	1.09091	275.3	0	247.8	135	0	0	0	0	0	0	0	0	0	0	0	0.0000	0.0000	0.0000	0.0000;
	44	135	-19.9999982	120	-20	1.09833135	255	1	225	135	0	0	0	0	0	0	0	0	0	0	0	0.0000	7.8082	0.0000	0.6886;
	44	135	-19.9999982	120	-20	1.09833135	255	1	225	135	0	0	0	0	0	0	0	0	0	0	0	0.0000	7.8082	0.0000	0.6886;
	44	0	0	120	-20	1.09096	255	0	225	135	0	0	0	0	0	0	0	0	0	0	0	0.0000	0.0000	0.0000	0.0000;
	45	0	0	350	-40	1.0325	610.3	0	500	350	0	0	0	0	0	0	0	0	0	0	0	0.0000	0.0000	0.0000	0.0000;
	45	350	-39.9999979	350	-40	1.03256557	610.3	1	500	350	0	0	0	0	0	0	0	0	0	0	0	0.0000	7.4837	0.0000	0.5861;
	55	130	-19.999999	120	-20	1.09338096	255	1	225	130	0	0	0	0	0	0	0	0	0	0	0	0.0000	11.0711	0.0000	1.1715;
	56	130	-19.999999	120	-20	1.09335399	255	1	225	130	0	0	0	0	0	0	0	0	0	0	0	0.0000	11.0739	0.0000	1.1740;
	56	0	0	120	-20	1.09115	255	0	225	130	0	0	0	0	0	0	0	0	0	0	0	0.0000	0.0000	0.0000	0.0000;
	57	130	-19.999999	120	-20	1.03993383	255	1	225	130	0	0	0	0	0	0	0	0	0	0	0	0.0000	10.8817	0.0000	1.2184;
	58	0	0	120	-20	1.03337	255	0	225	130	0	0	0	0	0	0	0	0	0	0	0	0.0000	0.0000	0.0000	0.0000;
	58	130	-19.999999	120	-20	1.0399188	255	1	225	130	0	0	0	0	0	0	0	0	0	0	0	0.0000	10.8800	0.0000	1.2194;
	58	0	0	120	-20	1.03337	255	0	225	130	0	0	0	0	0	0	0	0	0	0	0	0.0000	0.0000	0.0000	0.0000;
	59	63	1.68365197e-06	28.8	0	1.09052224	69.3	1	63	63	0	0	0	0	0	0	0	0	0	0	0	94.7107	0.0000	0.0000	0.7172;
	78	140.000001	27.6614195	105	5	1.0964708	248.3	1	225	140	0	0	0	0	0	0	0	0	0	0	0	0.0000	1.4393	0.0000	0.0000;
	78	140.000001	27.6614195	105	5	1.0964708	248.3	1	225	140	0	0	0	0	0	0	0	0	0	0	0	0.0000	1.4393	0.0000	0.0000;
	79	0	0	105	5	1.09034	243.8	0	220	140	0	0	0	0	0	0	0	0	0	0	0	0.0000	0.0000	0.0000	0.0000;
	79	0	0	105	5	1.09034	248.3	0	225	140	0	0	0	0	0	0	0	0	0	0	0	0.0000	0.0000	0.0000	0.0000;
	79	140.000001	5.00000951	105	5	1.09787066	248.3	1	225	140	0	0	0	0	0	0	0	0	0	0	0	0.0000	1.2033	0.0000	0.1269;
	82	379.999999	-36.9999956	192	-37	1.04439795	425.8	1	380	220	0	0	0	0	0	0	0	0	0	0	0	1.2418	0.0000	0.0000	0.2730;
	82	369.999999	-27.6979956	174	-27.698	1.04439795	408.9	1	370	220	0	0	0	0	0	0	0	0	0	0	0	1.2418	0.0000	0.0000	0.2730;
	104	188.86444	25.1818558	113	-48	1.10586036	251.8	1	225	120	0	0	0	0	0	0	0	0	0	0	0	0.0000	0.0000	0.0000	0.0000;
	105	0	0	113	-48	1.09091	251.8	0	225	134	0	0	0	0	0	0	0	0	0	0	0	0.0000	0.0000	0.0000	0.0000;
	106	79.0000009	31.984084	90	-5	1.09984814	150	1	120	79	0	0	0	0	0	0	0	0	0	0	0	0.0000	1.3755	0.0000	0.0000;
	107	79.0000009	1.31766242	90	-5	1.09974937	150	1	120	79	0	0	0	0	0	0	0	0	0	0	0	0.0000	1.3729	0.0000	0.0000;
	116	0	0	90	-20	1.09042	150	0	120	90	0	0	0	0	0	0	0	0	0	0	0	0.0000	0.0000	0.0000	0.0000;
	117	70.0000004	-19.9999896	90	-20	1.09572698	150	1	120	70	0	0	0	0	0	0	0	0	0	0	0	0.0000	3.0874	0.0000	0.1165;
	118	80.0000002	33.0000046	68	33	1.09992379	129.3	1	110	80	0	0	0	0	0	0	0	0	0	0	0	0.0000	5.0345	0.0000	0.2633;
	125	214.999999	52.2727273	113	-11	1.11	242.9	1	215	160	0	0	0	0	0	0	0	0	0	0	0	1.1339	0.0000	0.0000	0.0000;
	126	224.999999	83.9991148	84	-5	1.10994826	240.2	1	225	140	0	0	0	0	0	0	0	0	0	0	0	1.1396	0.0000	0.0014	0.0000;
	126	0	0	80	-5	1.09082	229.4	0	215	160	0	0	0	0	0	0	0	0	0	0	0	0.0000	0.0000	0.0000	0.0000;
	127	224.999999	-7.49998987	79	-7.5	1.04011549	238.5	1	225	140	0	0	0	0	0	0	0	0	0	0	0	1.0069	0.0000	0.0000	0.1193;
	127	219.999999	-9.99998987	100	-10	1.04011549	241.7	1	220	160	0	0	0	0	0	0	0	0	0	0	0	1.0069	0.0000	0.0000	0.1193;
	132	0	0	0	0	1.09091	0	0	0	0	0	0	0	0	0	0	0	0	0	0	0	0.0000	0.0000	0.0000	0.0000;
	132	0	0	0	0	1.09091	0	0	0	0	0	0	0	0	0	0	0	0	0	0	0	0.0000	0.0000	0.0000	0.0000;
	133	0	0	0	0	1.09091	0	0	0	0	0	0	0	0	0	0	0	0	0	0	0	0.0000	0.0000	0.0000	0.0000;
	133	0	0	0	0	1.09091	0	0	0	0	0	0	0	0	0	0	0	0	0	0	0	0.0000	0.0000	0.0000	0.0000;
	134	0	0	90	0	1.08882	150	0	120	102	0	0	0	0	0	0	0	0	0	0	0	0.0000	0.0000	0.0000	0.0000;
	134	119.999999	60.3414529	90.001	0	1.10647027	150	1	120	100	0	0	0	0	0	0	0	0	0	0	0	2.1840	0.0000	0.0000	0.0000;
	135	0	0	90	0	1.08867	150	0	120	102	0	0	0	0	0	0	0	0	0	0	0	0.0000	0.0000	0.0000	0.0000;
	146	43.3663893	-0.000939690195	12	-0.001	1.1010366	51.4	1	50	30	0	0	0	0	0	0	0	0	0	0	0	0.0000	0.0000	0.0000	0.0201;
	146	43.3663893	-0.000939690195	12	-0.001	1.1010366	51.4	1	50	30	0	0	0	0	0	0	0	0	0	0	0	0.0000	0.0000	0.0000	0.0201;
	147	0	0	90	0	1.09011	150	0	120	90	0	0	0	0	0	0	0	0	0	0	0	0.0000	0.0000	0.0000	0.0000;
	148	90.0000001	7.71821887e-07	120	0	1.08477314	252.4	1	222	90	0	0	0	0	0	0	0	0	0	0	0	0.0000	14.5555	0.0000	1.5648;
	148	0	0	120	0	1.09091	237.5	0	205	135	0	0	0	0	0	0	0	0	0	0	0	0.0000	0.0000	0.0000	0.0000;
	148	0	0	120	0	1.09091	237.5	0	205	135	0	0	0	0	0	0	0	0	0	0	0	0.0000	0.0000	0.0000	0.0000;
	148	90.0000001	7.71821887e-07	120	0	1.08477314	252.4	1	222	90	0	0	0	0	0	0	0	0	0	0	0	0.0000	14.5555	0.0000	1.5648;
	150	90.0000001	6.96183231e-07	120	0	1.02094797	252.4	1	222	90	0	0	0	0	0	0	0	0	0	0	0	0.0000	14.1624	0.0000	1.7347;
	151	90.0000001	6.96037626e-07	120	0	1.0209326	252.4	1	222	90	0	0	0	0	0	0	0	0	0	0	0	0.0000	14.1599	0.0000	1.7351;
	151	0	0	120	0	1.0325	252.4	0	222	90	0	0	0	0	0	0	0	0	0	0	0	0.0000	0.0000	0.0000	0.0000;
	155	94.0000003	16.5474684	120	0	1.08912283	263.9	1	235	94	0	0	0	0	0	0	0	0	0	0	0	0.0000	4.6543	0.0000	0.0000;
	155	94.0000003	16.5474684	120	0	1.08912283	263.9	1	235	94	0	0	0	0	0	0	0	0	0	0	0	0.0000	4.6543	0.0000	0.0000;
	155	0	0	120	0	1.09091	237.5	0	205	130	0	0	0	0	0	0	0	0	0	0	0	0.0000	0.0000	0.0000	0.0000;
	155	104	16.5474684	120	0	1.08912283	287.3	1	261	104	0	0	0	0	0	0	0	0	0	0	0	0.0000	4.6543	0.0000	0.0000;
	156	0	0	120	0	1.09091	237.5	0	205	130	0	0	0	0	0	0	0	0	0	0	0	0.0000	0.0000	0.0000	0.0000;
	156	130	16.0459733	120	0	1.08898965	237.5	1	205	130	0	0	0	0	0	0	0	0	0	0	0	0.0000	4.4311	0.0000	0.0000;
	156	120	16.0459733	120	0	1.08898965	238.4	1	206	120	0	0	0	0	0	0	0	0	0	0	0	0.0000	4.4311	0.0000	0.0000;
	156	120	16.0459733	120	0	1.08898965	238.4	1	206	120	0	0	0	0	0	0	0	0	0	0	0	0.0000	4.4311	0.0000	0.0000;
	159	120	1.08028335e-05	120	0	1.03405585	238.4	1	206	120	0	0	0	0	0	0	0	0	0	0	0	0.0000	4.6997	0.0000	0.1118;
	165	200	28.2223726	120	0	1.10076838	233.2	1	200	150	0	0	0	0	0	0	0	0	0	0	0	7.3221	0.0000	0.0000	0.0000;
	165	0	0	120	0	1.09084	233.2	0	200	150	0	0	0	0	0	0	0	0	0	0	0	0.0000	0.0000	0.0000	0.0000;
	166	200	36.1114277	120	0	1.10071019	233.2	1	200	150	0	0	0	0	0	0	0	0	0	0	0	7.3314	0.0000	0.0000	0.0000;
	165	0	0	120	0	1.09084	233.2	0	200	150	0	0	0	0	0	0	0	0	0	0	0	0.0000	0.0000	0.0000	0.0000;
	205	0	-29.998195	80	-30	1.0176283	196.1	1	0	0	0	0	0	0	0	0	0	0	0	0	0	105.9147	0.0000	0.0000	0.0000;
	205	0	-29.998195	80	-30	1.0176283	196.1	1	0	0	0	0	0	0	0	0	0	0	0	0	0	105.9147	0.0000	0.0000	0.0000;
	205	0	-29.998195	80	-30	1.0176283	196.1	1	0	0	0	0	0	0	0	0	0	0	0	0	0	105.9147	0.0000	0.0000	0.0000;
	206	0	73.8361601	80	-30	1.01767481	196.1	1	0	0	0	0	0	0	0	0	0	0	0	0	0	105.9137	0.0000	0.0000	0.0000;
	215	37.079	5.5708993e-07	20	0	1.11822498	58.5	1	37.079	37.079	0	0	0	0	0	0	0	0	0	0	0	94.4174	0.0000	0.0000	2.1684;
	215	33.708	5.5708993e-07	20	0	1.11822498	53.9	1	33.708	33.708	0	0	0	0	0	0	0	0	0	0	0	94.4174	0.0000	0.0000	2.1684;
	215	33.708	5.5708993e-07	20	0	1.11822498	53.9	1	33.708	33.708	0	0	0	0	0	0	0	0	0	0	0	94.4174	0.0000	0.0000	2.1684;
	215	15.506	5.5708993e-07	20	0	1.11822498	30.5	1	15.506	15.506	0	0	0	0	0	0	0	0	0	0	0	94.4174	0.0000	0.0000	2.1684;
	229	5.5	1.49999172	1.5	0	1.10685147	7.3	1	5.5	5.5	0	0	0	0	0	0	0	0	0	0	0	93.6541	0.0000	0.1459	0.0000;
	230	5.5	6.99999095	7	0	1.10724346	10	1	5.5	5.5	0	0	0	0	0	0	0	0	0	0	0	93.6509	0.0000	0.1334	0.0000;
	239	3	7.9999974	8	0	1.07504879	15.4	1	3	3	0	0	0	0	0	0	0	0	0	0	0	99.0123	0.0000	0.4637	0.0000;
	246	370	135.012578	220	-14	1.0854168	430.5	1	370	290	0	0	0	0	0	0	0	0	0	0	0	14.4107	0.0000	0.0000	0.0000;
	291	2	1.30223149	2	0	1.10062	3.2	1	2	2	0	0	0	0	0	0	0	0	0	0	0	96.1034	0.0000	0.0000	0.0000;
	294	2	1.99993743	2	0	1.07931208	4.8	1	2	2	0	0	0	0	0	0	0	0	0	0	0	98.9029	0.0000	0.0238	0.0000;
	306	9.167	6.99999684	7	0	1.10190972	24	1	9.167	9.167	0	0	0	0	0	0	0	0	0	0	0	93.5706	0.0000	0.3820	0.0000;
	306	16.296	6.99999684	7	0	1.10190972	27.9	1	16.296	16.296	0	0	0	0	0	0	0	0	0	0	0	93.5706	0.0000	0.3820	0.0000;
	306	11.204	7.61699684	7.617	6	1.10190972	31	1	11.204	11.204	0	0	0	0	0	0	0	0	0	0	0	93.5706	0.0000	0.3820	0.0000;
	306	9.167	6.99999684	7	0	1.10190972	26.9	1	9.167	9.167	0	0	0	0	0	0	0	0	0	0	0	93.5706	0.0000	0.3820	0.0000;
	306	9.167	7.92899684	7.929	0	1.10190972	28.1	1	9.167	9.167	0	0	0	0	0	0	0	0	0	0	0	93.5706	0.0000	0.3820	0.0000;
	307	36.5	14.9999923	15	0	1.1066353	57	1	36.5	36.5	0	0	0	0	0	0	0	0	0	0	0	93.6448	0.0000	0.1561	0.0000;
	307	36.5	14.9999923	15	0	1.1066353	57	1	36.5	36.5	0	0	0	0	0	0	0	0	0	0	0	93.6448	0.0000	0.1561	0.0000;
	308	32	13.3781201	15	0	1.11292971	36.7	1	32	32	0	0	0	0	0	0	0	0	0	0	0	93.0349	0.0000	0.0000	0.0000;
	308	40	15.1179273	16.829	0	1.11292971	57.5	1	40	40	0	0	0	0	0	0	0	0	0	0	0	93.0349	0.0000	0.0000	0.0000;
	310	35	19.9999951	20	0	1.11056494	53.9	1	35	35	0	0	0	0	0	0	0	0	0	0	0	92.3687	0.0000	0.2463	0.0000;
	310	75	25.5989951	25.599	0	1.11056494	103.2	1	75	75	0	0	0	0	0	0	0	0	0	0	0	92.3687	0.0000	0.2463	0.0000;
	311	45	37.1180492	40	0	1.11350756	64	1	45	45	0	0	0	0	0	0	0	0	0	0	0	92.7037	0.0000	0.0000	0.0000;
	319	2	2.99999606	3	0	1.10824046	4.1	1	2	2	0	0	0	0	0	0	0	0	0	0	0	92.5769	0.0000	0.3063	0.0000;
	345	1	0.99999429	1	0	1.08012891	1.9	1	1	1	0	0	0	0	0	0	0	0	0	0	0	98.3887	0.0000	0.2116	0.0000;
	362	40	11.9999986	12	0	1.08413899	47.8	1	40	40	0	0	0	0	0	0	0	0	0	0	0	97.5384	0.0000	0.8785	0.0000;
	363	40	11.9999952	12	0	1.08097135	47.8	1	40	40	0	0	0	0	0	0	0	0	0	0	0	97.3598	0.0000	0.2504	0.0000;
	364	0	0	12	0	1.1049	47.8	0	0	0	0	0	0	0	0	0	0	0	0	0	0	0.0000	0.0000	0.0000	0.0000;
	364	46	11.9999987	12	0	1.08714771	71	1	46	46	0	0	0	0	0	0	0	0	0	0	0	97.1752	0.0000	0.9249	0.0000;
	365	40	11.9999749	12	0	1.08779231	47.8	1	40	40	0	0	0	0	0	0	0	0	0	0	0	97.1385	0.0000	0.0487	0.0000;
	365	40	11.9999749	12	0	1.08779231	47.8	1	40	40	0	0	0	0	0	0	0	0	0	0	0	97.1385	0.0000	0.0487	0.0000;
	368	1	0.999994539	1	0	1.07837303	1.9	1	1	1	0	0	0	0	0	0	0	0	0	0	0	100.4229	0.0000	0.2212	0.0000;
	382	15.0000001	4.85761085	10	0	1.09271047	55.9	1	55	15	0	0	0	0	0	0	0	0	0	0	0	0.0000	16.4468	0.0000	0.0000;
	382	120	44.5562107	120	-10	1.09271047	255.9	1	226	120	0	0	0	0	0	0	0	0	0	0	0	0.0000	16.4468	0.0000	0.0000;
	383	15.0000001	3.66340681e-06	10	0	1.10102712	55.9	1	55	15	0	0	0	0	0	0	0	0	0	0	0	0.0000	15.5924	0.0000	0.3300;
	386	2.5	1.99999396	2	0	1.10332234	4.8	1	2.5	2.5	0	0	0	0	0	0	0	0	0	0	0	94.4245	0.0000	0.2001	0.0000;
	395	1	0.999986942	1	0	1.08403758	1.9	1	1	1	0	0	0	0	0	0	0	0	0	0	0	97.3151	0.0000	0.0930	0.0000;
	421	4	3.99999736	4	0	1.08371057	7.7	1	4	4	0	0	0	0	0	0	0	0	0	0	0	97.7089	0.0000	0.4575	0.0000;
	426	3	2.99999675	3	0	1.10729427	4.5	1	3	3	0	0	0	0	0	0	0	0	0	0	0	92.3715	0.0000	0.3720	0.0000;
	431	5	7.99999581	8	0	1.0871405	13.6	1	5	5	0	0	0	0	0	0	0	0	0	0	0	98.9881	0.0000	0.2879	0.0000;
	440	2	1.99999778	2	0	1.0610298	3.6	1	2	2	0	0	0	0	0	0	0	0	0	0	0	92.2016	0.0000	0.5447	0.0000;
	447	3.5	2.68506508e-05	20	0	1.08184728	21.3	1	3.5	3.5	0	0	0	0	0	0	0	0	0	0	0	96.8882	0.0000	0.0000	0.0452;
	447	3.5	2.68506508e-05	20	0	1.08184728	21.3	1	3.5	3.5	0	0	0	0	0	0	0	0	0	0	0	96.8882	0.0000	0.0000	0.0452;
	463	0	1.57154092e-05	2	0	1.07889186	4	1	0	0	0	0	0	0	0	0	0	0	0	0	0	97.8836	0.0000	0.0000	0.0772;
	482	1.4	0.699996919	0.7	0	1.05177862	1.7	1	1.4	1.4	0	0	0	0	0	0	0	0	0	0	0	92.8634	0.0000	0.3922	0.0000;
	490	3	2.99999385	3	0	1.09341153	5.3	1	3	3	0	0	0	0	0	0	0	0	0	0	0	96.2761	0.0000	0.1965	0.0000;
	522	0	2.05625951e-06	1	0	1.10287306	1.9	1	0	0	0	0	0	0	0	0	0	0	0	0	0	92.7191	0.0000	0.0000	0.5875;
	533	0.5	0.999997576	1	0	1.08485671	1.9	1	0.5	0.5	0	0	0	0	0	0	0	0	0	0	0	97.7899	0.0000	0.4984	0.0000;
	534	35.89	11.0166351	14	0	1.10326238	53.9	1	35.89	35.89	0	0	0	0	0	0	0	0	0	0	0	95.4429	0.0000	0.0000	0.0000;
	534	22.086	11.0166351	14	0	1.10326238	34.9	1	22.086	22.086	0	0	0	0	0	0	0	0	0	0	0	95.4429	0.0000	0.0000	0.0000;
	534	22.086	11.0166351	14	0	1.10326238	34.9	1	22.086	22.086	0	0	0	0	0	0	0	0	0	0	0	95.4429	0.0000	0.0000	0.0000;
	534	72.469	11.0166351	14	0	1.10326238	105.9	1	72.469	72.469	0	0	0	0	0	0	0	0	0	0	0	95.4429	0.0000	0.0000	0.0000;
	534	72.469	11.0166351	14	0	1.10326238	105.9	1	72.469	72.469	0	0	0	0	0	0	0	0	0	0	0	95.4429	0.0000	0.0000	0.0000;
	535	24.573	13.37372	17.5	0	1.10220976	36.5	1	24.573	24.573	0	0	0	0	0	0	0	0	0	0	0	95.1112	0.0000	0.0000	0.0000;
	535	23.805	13.37372	17.5	0	1.10220976	35.6	1	23.805	23.805	0	0	0	0	0	0	0	0	0	0	0	95.1112	0.0000	0.0000	0.0000;
	535	95.99	13.37372	17.5	0	1.10220976	126.2	1	95.99	95.99	0	0	0	0	0	0	0	0	0	0	0	95.1112	0.0000	0.0000	0.0000;
	535	80.631	13.37372	17.5	0	1.10220976	106.4	1	80.631	80.631	0	0	0	0	0	0	0	0	0	0	0	95.1112	0.0000	0.0000	0.0000;
	549	1	0.699997946	0.7	0	1.08272057	1.7	1	1	1	0	0	0	0	0	0	0	0	0	0	0	97.4065	0.0000	0.5881	0.0000;
	557	25.724	5.05099741	5.051	0	1.08747479	34.4	1	25.724	25.724	0	0	0	0	0	0	0	0	0	0	0	96.7590	0.0000	0.4661	0.0000;
	557	21.184	5.05099741	5.051	0	1.08747479	28.5	1	21.184	21.184	0	0	0	0	0	0	0	0	0	0	0	96.7590	0.0000	0.4661	0.0000;
	557	19.671	4.99999741	5	0	1.08747479	26.5	1	19.671	19.671	0	0	0	0	0	0	0	0	0	0	0	96.7590	0.0000	0.4661	0.0000;
	557	22.697	5.05099741	5.051	0	1.08747479	30.4	1	22.697	22.697	0	0	0	0	0	0	0	0	0	0	0	96.7590	0.0000	0.4661	0.0000;
	557	25.724	5.05099741	5.051	0	1.08747479	34.4	1	25.724	25.724	0	0	0	0	0	0	0	0	0	0	0	96.7590	0.0000	0.4661	0.0000;
	558	31.032	5.06399793	5.064	0	1.08180809	34.4	1	31.032	31.032	0	0	0	0	0	0	0	0	0	0	0	96.9101	0.0000	0.5832	0.0000;
	558	31.032	5.06399793	5.064	0	1.08180809	34.4	1	31.032	31.032	0	0	0	0	0	0	0	0	0	0	0	96.9101	0.0000	0.5832	0.0000;
	558	22.817	4.99999793	5	0	1.08180809	26.5	1	22.817	22.817	0	0	0	0	0	0	0	0	0	0	0	96.9101	0.0000	0.5832	0.0000;
	558	30.119	5.06399793	5.064	0	1.08180809	34.4	1	30.119	30.119	0	0	0	0	0	0	0	0	0	0	0	96.9101	0.0000	0.5832	0.0000;
	581	3	2.99997865	3	0	1.07775042	5.3	1	3	3	0	0	0	0	0	0	0	0	0	0	0	99.2495	0.0000	0.0587	0.0000;
	594	2.07	2.14000762e-06	1.08	0	1.07269833	4.4	1	2.07	2.07	0	0	0	0	0	0	0	0	0	0	0	95.9534	0.0000	0.0000	0.5644;
	601	4.05	2.09091601e-06	1.8	0	1.07492078	4.4	1	4.05	4.05	0	0	0	0	0	0	0	0	0	0	0	96.1029	0.0000	0.0000	0.5776;
	622	110	-0.000996658363	30	-0.001	1.07551714	114	1	110	110	0	0	0	0	0	0	0	0	0	0	0	93.5006	0.0000	0.0000	0.3613;
	622	0	0	30	0	1.0778	65.3	0	0	0	0	0	0	0	0	0	0	0	0	0	0	0.0000	0.0000	0.0000	0.0000;
	626	2.25	1.44618578e-06	0.9	0	1.09647938	2.4	1	2.25	2.25	0	0	0	0	0	0	0	0	0	0	0	94.8267	0.0000	0.0000	0.8352;
	630	4.5	3.2849801e-06	2.52	0	1.0744765	5.2	1	4.5	4.5	0	0	0	0	0	0	0	0	0	0	0	95.5753	0.0000	0.0000	0.3677;
	631	5.4	3.18651274e-06	2.52	0	1.07480887	6	1	5.4	5.4	0	0	0	0	0	0	0	0	0	0	0	95.5536	0.0000	0.0000	0.3791;
	655	0.81	7.38814013e-06	0.36	0	1.03868487	0.9	1	0.81	0.81	0	0	0	0	0	0	0	0	0	0	0	97.6030	0.0000	0.0000	0.1637;
	660	135	31.2356016	120	-20	1.08723276	255	1	225	135	0	0	0	0	0	0	0	0	0	0	0	0.0000	9.1341	0.0000	0.0000;
	661	135	-19.9984728	120	-20	1.08687841	255	1	225	135	0	0	0	0	0	0	0	0	0	0	0	0.0000	9.1246	0.0000	0.0000;
	667	1.89	6.173505e-06	0.72	0	1.03381816	2	1	1.89	1.89	0	0	0	0	0	0	0	0	0	0	0	97.0845	0.0000	0.0000	0.1956;
	671	7.65	2.04897382e-06	2.7	0	1.08071823	8.6	1	7.65	7.65	0	0	0	0	0	0	0	0	0	0	0	95.8829	0.0000	0.0000	0.5895;
	673	2.7	2.22597777e-06	0.9	0	1.06863245	4.4	1	2.7	2.7	0	0	0	0	0	0	0	0	0	0	0	95.8643	0.0000	0.0000	0.5426;
	681	190	1.546194e-06	30	0	1.09882763	192.4	1	190	190	0	0	0	0	0	0	0	0	0	0	0	93.9174	0.0000	0.0000	0.7811;
	681	24.998	1.546194e-06	30	0	1.09882763	77.5	1	24.998	24.998	0	0	0	0	0	0	0	0	0	0	0	93.9174	0.0000	0.0000	0.7811;
	687	9	1.50197009e-06	4.5	0	1.09630519	10.1	1	9	9	0	0	0	0	0	0	0	0	0	0	0	94.6531	0.0000	0.0000	0.8041;
	699	5.4	1.68095447e-06	2.7	0	1.09312301	6	1	5.4	5.4	0	0	0	0	0	0	0	0	0	0	0	94.7175	0.0000	0.0000	0.7185;
	702	0.9	1.26768541e-06	0.9	0	1.07195125	1.3	1	0.9	0.9	0	0	0	0	0	0	0	0	0	0	0	94.8595	0.0000	0.0000	0.9527;
	712	9	1.54377386e-06	2	0	1.07152519	9.2	1	9	9	0	0	0	0	0	0	0	0	0	0	0	94.2087	0.0000	0.0000	0.7822;
	718	1.44	7.67133385e-06	0.36	0	1.04024179	1.5	1	1.44	1.44	0	0	0	0	0	0	0	0	0	0	0	97.6349	0.0000	0.0000	0.1576;
	722	2.25	1.78508076e-06	0.9	0	1.07792029	2.4	1	2.25	2.25	0	0	0	0	0	0	0	0	0	0	0	96.1086	0.0000	0.0000	0.6766;
	731	1.35	9.02118588e-07	0.45	0	1.08298386	4.3	1	1.35	1.35	0	0	0	0	0	0	0	0	0	0	0	95.3408	0.0000	0.0000	1.3388;
	736	130	-19.9999987	120	-20	1.07856359	255	1	225	130	0	0	0	0	0	0	0	0	0	0	0	0.0000	12.1306	0.0000	0.9469;
	740	1.8	0	0	0	1.08034331	4.3	1	1.8	1.8	0	0	0	0	0	0	0	0	0	0	0	94.7155	0.0000	0.0000	0.6050;
	747	4.68	4.42046107e-06	2.7	0	1.0427434	5.4	1	4.68	4.68	0	0	0	0	0	0	0	0	0	0	0	97.8406	0.0000	0.0000	0.2731;
	759	90	1.91317e-06	30	0	1.06677612	105.2	1	90	90	0	0	0	0	0	0	0	0	0	0	0	93.9119	0.0000	0.0000	0.6311;
	760	0	0	0	0	1.06824	1.3	0	0	0	0	0	0	0	0	0	0	0	0	0	0	0.0000	0.0000	0.0000	0.0000;
	778	9	1.92422545e-06	30	0	1.05834434	31.3	1	9	9	0	0	0	0	0	0	0	0	0	0	0	95.4216	0.0000	0.0000	0.6275;
	780	1.26	3.34026269e-06	0.63	0	1.0754641	1.4	1	1.26	1.26	0	0	0	0	0	0	0	0	0	0	0	93.5062	0.0000	0.0000	0.3616;
	783	6	1.55478982e-06	3	0	1.09367918	6.7	1	6	6	0	0	0	0	0	0	0	0	0	0	0	94.8207	0.0000	0.0000	0.7768;
	788	2	4.14191292e-06	1	0	1.03382021	95.9	1	2	2	0	0	0	0	0	0	0	0	0	0	0	97.6690	0.0000	0.0000	0.2916;
	792	0	0	23	0	1.05369	71.8	0	0	0	0	0	0	0	0	0	0	0	0	0	0	0.0000	0.0000	0.0000	0.0000;
	792	0	0	23	0	1.05369	71.8	0	0	0	0	0	0	0	0	0	0	0	0	0	0	0.0000	0.0000	0.0000	0.0000;
	792	0	0	11	0	1.05369	23.7	0	0	0	0	0	0	0	0	0	0	0	0	0	0	0.0000	0.0000	0.0000	0.0000;
	792	0	0	10	0	1.05369	23.3	0	0	0	0	0	0	0	0	0	0	0	0	0	0	0.0000	0.0000	0.0000	0.0000;
	803	7.32493364e-08	1.26288998e-06	10	0	1.07846065	55.9	1	55	0	0	0	0	0	0	0	0	0	0	0	0	0.0000	16.4882	0.0000	0.9562;
	804	7.75663073e-08	2.49335516e-06	10	0	1.06461656	120.4	1	120	0	0	0	0	0	0	0	0	0	0	0	0	0.0000	15.5706	0.0000	0.4843;
	809	0	0	0	0	1.07004	3.3	0	0	0	0	0	0	0	0	0	0	0	0	0	0	0.0000	0.0000	0.0000	0.0000;
	815	2.7	2.35766526e-06	1.62	0	1.07846739	3.1	1	2.7	2.7	0	0	0	0	0	0	0	0	0	0	0	95.3435	0.0000	0.0000	0.5123;
	834	0.9	0	0	0	1.07184182	1.5	1	0.9	0.9	0	0	0	0	0	0	0	0	0	0	0	96.0721	0.0000	0.0000	1.4263;
	840	25	4.02406202e-06	5.592	0	1.05903062	51.3	1	25	25	0	0	0	0	0	0	0	0	0	0	0	95.1726	0.0000	0.0000	0.3001;
	840	25	4.02406202e-06	5.592	0	1.05903062	51.3	1	25	25	0	0	0	0	0	0	0	0	0	0	0	95.1726	0.0000	0.0000	0.3001;
	844	1.9	0.310985229	0.311	0	1.08030278	3.5	1	1.9	1.9	0	0	0	0	0	0	0	0	0	0	0	95.2214	0.0000	0.0822	0.0000;
	848	3.011	0.0109964915	0.011	0	1.07160464	5.6	1	3.011	3.011	0	0	0	0	0	0	0	0	0	0	0	96.1475	0.0000	0.3527	0.0000;
	854	7	0.931997899	0.932	0	1.08688058	14.5	1	7	7	0	0	0	0	0	0	0	0	0	0	0	93.9492	0.0000	0.5750	0.0000;
	873	68	7.83116331	41.2	0	1.10004682	87.7	1	68	68	0	0	0	0	0	0	0	0	0	0	0	91.9617	0.0000	0.0000	0.0000;
	876	0	0	0	0	1.0397	1.9	0	0	0	0	0	0	0	0	0	0	0	0	0	0	0.0000	0.0000	0.0000	0.0000;
	896	0	0	45	-10	1.06882	65.8	0	0	0	0	0	0	0	0	0	0	0	0	0	0	0.0000	0.0000	0.0000	0.0000;
	896	0	0	45	-10	1.06882	71.1	0	0	0	0	0	0	0	0	0	0	0	0	0	0	0.0000	0.0000	0.0000	0.0000;
	896	40	44.9999886	45	-10	1.09253366	71.1	1	40	40	0	0	0	0	0	0	0	0	0	0	0	93.1211	0.0000	0.1055	0.0000;
	902	0.111	0.0109969735	0.011	0	1.06582718	0.3	1	0.111	0.111	0	0	0	0	0	0	0	0	0	0	0	97.5797	0.0000	0.4076	0.0000;
...
];

%% branch data
%	fbus	tbus	r	x	b	rateA	rateB	rateC	ratio	angle	status	angmin	angmax	Pf	Qf	Pt	Qt	mu_Sf	mu_St	mu_angmin	mu_angmax
mpc.branch = [
	7	8	0.00064	0.0305	0	400	400	400	1.0435	-0.6	1	-360	360	-98.9424	15.9214	99.0026	-13.0527	0.0000	0.0000	0.0000	0.0000;
	26	28	0.00036	0.02519	0	500	500	500	1.0627	0	1	-360	360	-92.7921	-15.9443	92.8213	17.9933	0.0000	0.0000	0.0000	0.0000;
	27	29	0.00036	0.02519	0	500	500	500	1.0623	0	1	-360	360	160.1539	-13.6121	-160.0687	19.5725	0.0000	0.0000	0.0000	0.0000;
	40	42	0.00034	0.02097	0	500	500	500	1.1011	0	1	-360	360	3.3516	-88.2902	-3.3255	89.9010	0.0000	0.0000	0.0000	0.0000;
	43	46	0.00034	0.02097	0	500	500	500	1.0733	0	1	-360	360	-14.0206	-44.5082	14.0277	44.9442	0.0000	0.0000	0.0000	0.0000;
	55	57	0.00081	0.03	0	400	400	400	1.0547	0	1	-360	360	21.8292	-11.7828	-21.8246	11.9546	0.0000	0.0000	0.0000	0.0000;
	90	92	0.00075	0.02444	-0.00832	330	330	330	1.0508	0	1	-360	360	-171.8992	0.3855	172.1012	7.1118	0.0000	0.0000	0.0000	0.0000;
	91	93	0.00075	0.02469	-0.008	330	330	330	1.0499	0	1	-360	360	-169.8379	4.1348	170.0348	3.2287	0.0000	0.0000	0.0000	0.0000;
	125	128	0.0005	0.02875	-0.016	400	400	400	1.0677	0	1	-360	360	-106.7153	2.4365	106.7680	2.3236	0.0000	0.0000	0.0000	0.0000;
	149	150	0.00064	0.0305	0	400	400	400	1.0568	0	1	-360	360	101.1833	17.8042	-101.1192	-14.7486	0.0000	0.0000	0.0000	0.0000;
	155	158	0.000232	0.023	0	500	500	500	1.049	0	1	-360	360	-79.3085	20.2913	79.3229	-18.8614	0.0000	0.0000	0.0000	0.0000;
	156	159	0.000232	0.023	0	500	500	500	1.0479	0	1	-360	360	-84.0959	24.9042	84.1124	-23.2659	0.0000	0.0000	0.0000	0.0000;
	170	172	0.00035	0.02375	0	500	500	500	1.195	0	1	-360	360	68.9547	-137.6600	-68.8586	144.1852	0.0000	0.0000	0.0000	0.0000;
	183	184	0.00059	0.03093	0	400	400	400	1.0847	0	1	-360	360	-22.6196	-13.4784	22.6235	13.6832	0.0000	0.0000	0.0000	0.0000;
	190	192	0.0004	0.03	0	500	500	500	1.0485	0	1	-360	360	-27.9924	19.6114	27.9970	-19.2690	0.0000	0.0000	0.0000	0.0000;
	2735	158	0.00031	0.00338	0.0992	1386	1386	1386	0	0	1	-360	360	35.3009	-63.9231	-35.2873	53.4827	0.0000	0.0000	0.0000	0.0000;
	2735	159	0.00031	0.00338	0.0992	1386	1386	1386	0	0	1	-360	360	34.1551	-63.0568	-34.1420	52.6109	0.0000	0.0000	0.0000	0.0000;
	2736	68	0.014341	0.083531	0.126034	415	415	415	0	0	1	-360	360	125.0000	-21.4240	-123.0764	17.7806	0.0000	0.0000	0.0000	0.0000;
	2734	76	0.01219	0.070659	0.117418	412	412	412	0	0	1	-360	360	135.3389	-13.4367	-133.5070	9.8098	0.0000	0.0000	0.0000	0.0000;
	2734	105	0.011781	0.07087	0.116838	412	412	412	0	0	1	-360	360	-66.3809	4.2056	66.8183	-15.8541	0.0000	0.0000	0.0000	0.0000;
	2739	200	1e-05	9e-05	0	924	924	924	0	0	1	-360	360	200.0000	0.0000	-199.9962	0.0342	0.0000	0.0000	0.0000	0.0000;
	128	2732	0.0015	0.01469	0.40384	1386	1386	1386	0	0	0	-360	360	0.0000	0.0000	0.0000	0.0000	0.0000	0.0000	0.0000	0.0000;
	127	2733	0.001419	0.014675	0.4896	1386	1386	1386	0	0	1	-360	360	332.3751	56.8268	-330.8350	-93.0950	0.0000	0.0000	0.0000	0.0000;
	2737	148	0.001651	0.015909	0.046948	373	373	373	0	0	1	-360	360	2.9007	-3.8313	-2.9005	-1.6914	0.0000	0.0000	0.0000	0.0000;
	2737	149	0.001651	0.015909	0.046948	373	373	373	0	0	1	-360	360	4.7683	-3.7367	-4.7680	-1.7838	0.0000	0.0000	0.0000	0.0000;
	2738	48	0.00188	0.02287	0.6432	831	831	831	0	0	1	-360	360	-144.7514	-105.1474	145.2353	44.2823	0.0000	0.0000	0.0000	0.0000;
	2738	49	0.00188	0.02287	0.6432	831	831	831	0	0	1	-360	360	-144.2956	-105.0926	144.7769	44.1976	0.0000	0.0000	0.0000	0.0000;
	82	2732	0.003519	0.039313	1.0336	1621	1621	1621	0	0	1	-360	360	228.8959	-14.8690	-227.1500	-76.2490	0.0000	0.0000	0.0000	0.0000;
	43	23	0.01345	0.081141	0.141134	339	339	339	0	0	1	-360	360	95.9233	8.2463	-94.8662	-18.5595	0.0000	0.0000	0.0000	0.0000;
	26	90	0.009091	0.062401	0.111417	457	457	457	0	0	1	-360	360	110.4546	-4.2436	-109.5530	-3.1723	0.0000	0.0000	0.0000	0.0000;
	27	91	0.00868	0.06405	0.096994	457	457	457	0	0	1	-360	360	217.9219	-6.7789	-214.5763	19.6164	0.0000	0.0000	0.0000	0.0000;
	146	30	0.016961	0.123659	0.196988	373	373	373	0	0	1	-360	360	23.2700	3.4764	-23.1610	-26.1187	0.0000	0.0000	0.0000	0.0000;
	135	34	0.00512	0.02618	0.029621	335	335	335	0	0	1	-360	360	-132.9259	53.0000	133.7907	-52.1836	0.0000	0.0000	0.0000	0.0000;
	134	20	0.01068	0.061961	0.094961	415	415	415	0	0	1	-360	360	-177.4148	45.6518	180.3917	-39.9365	0.0000	0.0000	0.0000	0.0000;
	165	21	0.014651	0.105891	0.170852	373	373	373	0	0	1	-360	360	31.0514	-3.6757	-30.9295	-15.9544	0.0000	0.0000	0.0000	0.0000;
	41	109	0.01488	0.08161	0.114805	347	347	347	0	0	1	-360	360	-33.2607	18.8209	33.4753	-31.6067	0.0000	0.0000	0.0000	0.0000;
	40	91	0.011159	0.07231	0.103673	362	362	362	0	0	1	-360	360	-128.7059	33.2363	130.3484	-35.2593	0.0000	0.0000	0.0000	0.0000;
	179	83	0.008616	0.077645	0.122239	373	373	373	0	0	1	-360	360	-119.0895	-8.0739	120.1148	2.5656	0.0000	0.0000	0.0000	0.0000;
	203	166	0.01176	0.068289	0.102802	362	362	362	0	0	1	-360	360	-209.7126	-32.0981	214.4596	47.7472	0.0000	0.0000	0.0000	0.0000;
	194	166	0.016818	0.089091	0.129935	400	400	400	0	0	1	-360	360	-164.1522	-3.7382	168.1171	9.4412	0.0000	0.0000	0.0000	0.0000;
	193	165	0.013843	0.087025	0.134842	427	427	427	0	0	1	-360	360	-169.3797	-8.7157	172.8528	14.6698	0.0000	0.0000	0.0000	0.0000;
	207	168	0.01676	0.097169	0.148685	274	274	274	0	0	1	-360	360	-84.9421	0.4155	85.9526	-12.6888	0.0000	0.0000	0.0000	0.0000;
	43	12	0.01269	0.074979	0.130196	377	377	377	0	0	1	-360	360	105.7067	10.2080	-104.4971	-18.4532	0.0000	0.0000	0.0000	0.0000;
	198	18	0.014091	0.10413	0.15972	373	373	373	0	0	1	-360	360	-154.6945	-9.4033	157.6442	12.4057	0.0000	0.0000	0.0000	0.0000;
	100	55	0.003719	0.0438	0.100962	457	457	457	0	0	1	-360	360	-53.2818	9.7548	53.3771	-20.7489	0.0000	0.0000	0.0000	0.0000;
	163	82	0.00194	0.02056	0.51584	1316	1316	1316	0	0	1	-360	360	-471.7874	58.0220	475.8480	-71.4674	0.0000	0.0000	0.0000	0.0000;
	45	9	0.0015	0.01506	0.4032	1386	1386	1386	0	0	1	-360	360	200.8887	-18.7725	-200.3208	-18.3944	0.0000	0.0000	0.0000	0.0000;
	185	151	0.00294	0.03463	0.9216	693	693	693	0	0	1	-360	360	-287.1310	9.4807	289.5208	-78.0160	0.0000	0.0000	0.0000	0.0000;
	121	57	0.00169	0.01994	0.50624	831	831	831	0	0	1	-360	360	3.5605	-11.7601	-3.5564	-43.1020	0.0000	0.0000	0.0000	0.0000;
	29	93	0.00137	0.01625	0.41184	1386	1386	1386	0	0	1	-360	360	265.4903	-46.7479	-264.6045	11.9463	0.0000	0.0000	0.0000	0.0000;
	28	123	0.00231	0.02769	0.70144	1386	1386	1386	0	0	1	-360	360	340.0962	-33.6077	-337.6647	-13.9748	0.0000	0.0000	0.0000	0.0000;
	25	192	0.00207	0.02474	0.664	831	831	831	0	0	1	-360	360	637.2873	21.1864	-629.1572	7.7836	0.0000	0.0000	0.0000	0.0000;
	120	64	0.0015	0.01788	0.4512	831	831	831	0	0	1	-360	360	133.2793	-13.1165	-133.0325	-32.8529	0.0000	0.0000	0.0000	0.0000;
	122	65	0.00469	0.05544	1.4048	831	831	831	0	0	0	-360	360	0.0000	0.0000	0.0000	0.0000	0.0000	0.0000	0.0000	0.0000;
	82	31	0.00331	0.03425	0.85888	1150	1150	1150	0	0	1	-360	360	-60.5028	-54.3745	60.6156	-38.5530	0.0000	0.0000	0.0000	0.0000;
	92	28	0.00219	0.02369	0.59584	1316	1316	1316	0	0	1	-360	360	-180.4260	-7.7600	181.0858	-50.6557	0.0000	0.0000	0.0000	0.0000;
	10	4	0.01674	0.09711	0.144232	461	461	461	0	0	1	-360	360	-170.2992	9.4344	174.5368	-1.8955	0.0000	0.0000	0.0000	0.0000;
	30	11	0.0057	0.0407	0.06021	373	373	373	0	0	1	-360	360	-53.1384	15.8438	53.2945	-21.7288	0.0000	0.0000	0.0000	0.0000;
	33	4	0.004419	0.032229	0.049852	392	392	392	0	0	1	-360	360	186.3617	-15.7543	-185.0878	19.0237	0.0000	0.0000	0.0000	0.0000;
	17	7	0.014591	0.11219	0.165528	427	427	427	0	0	1	-360	360	-29.8577	15.7400	30.0452	-33.9371	0.0000	0.0000	0.0000	0.0000;
	21	10	0.01211	0.087419	0.140166	373	373	373	0	0	1	-360	360	-35.2107	15.0794	35.3928	-30.2177	0.0000	0.0000	0.0000	0.0000;
	26	5	0.009773	0.050516	0.088959	377	377	377	0	0	1	-360	360	136.7974	-2.7123	-135.3108	-0.4394	0.0000	0.0000	0.0000	0.0000;
	17	3	0.01068	0.07895	0.122597	274	274	274	0	0	1	-360	360	108.1285	20.4968	-107.0279	-26.8249	0.0000	0.0000	0.0000	0.0000;
	26	19	0.0057	0.039521	0.075533	480	480	480	0	0	1	-360	360	132.2003	6.1799	-131.3854	-9.7462	0.0000	0.0000	0.0000	0.0000;
	27	20	0.0057	0.039521	0.075533	480	480	480	0	0	1	-360	360	310.2051	-4.9393	-305.7533	26.5846	0.0000	0.0000	0.0000	0.0000;
	11	6	0.00525	0.03988	0.061952	373	373	373	0	0	1	-360	360	-2.4298	-9.0571	2.4315	1.8810	0.0000	0.0000	0.0000	0.0000;
	32	11	0.00093	0.00651	0.011132	373	373	373	0	0	1	-360	360	-46.9045	-16.0097	46.9241	14.8595	0.0000	0.0000	0.0000	0.0000;
	23	12	0.00205	0.01326	0.022429	415	415	415	0	0	1	-360	360	10.6096	-0.2323	-10.6076	-2.3528	0.0000	0.0000	0.0000	0.0000;
	34	5	0.007831	0.043	0.04962	335	335	335	0	0	1	-360	360	-134.1657	30.6452	135.4038	-29.8398	0.0000	0.0000	0.0000	0.0000;
	19	4	0.00293	0.01599	0.024781	362	362	362	0	0	1	-360	360	105.4799	-6.8858	-105.2096	5.3687	0.0000	0.0000	0.0000	0.0000;
	26	1	0.00155	0.01169	0.018198	747	747	747	0	0	1	-360	360	44.7748	79.3545	-44.6680	-80.7704	0.0000	0.0000	0.0000	0.0000;
	27	2	0.00155	0.01169	0.018198	747	747	747	0	0	1	-360	360	49.2417	49.6500	-49.1788	-51.4054	0.0000	0.0000	0.0000	0.0000;
	27	33	0.003841	0.028531	0.045883	392	392	392	0	0	1	-360	360	277.4724	6.8825	-275.0693	5.3642	0.0000	0.0000	0.0000	0.0000;
	24	33	2e-06	2.1e-05	0	392	392	392	0	0	1	-360	360	-88.7075	-10.3887	88.7077	10.3901	0.0000	0.0000	0.0000	0.0000;
	25	9	0.00298	0.03417	0.93504	831	831	831	0	0	1	-360	360	-151.5782	-58.3669	152.2380	-32.3494	0.0000	0.0000	0.0000	0.0000;
	28	25	0.00358	0.04262	1.0944	1386	1386	1386	0	0	1	-360	360	580.6789	25.3075	-569.4577	-8.8755	0.0000	0.0000	0.0000	0.0000;
	14	29	0.00336	0.03977	1.02163	1316	1316	1316	0	0	1	-360	360	-407.6433	-48.9244	412.9606	2.0773	0.0000	0.0000	0.0000	0.0000;
	8	15	0.00299	0.03675	0.9184	1358	1358	1358	0	0	1	-360	360	64.7544	-79.4703	-64.6094	-17.0095	0.0000	0.0000	0.0000	0.0000;
	8	14	0.00112	0.01329	0.341248	1358	1358	1358	0	0	1	-360	360	-232.2620	42.8833	232.8711	-71.6635	0.0000	0.0000	0.0000	0.0000;
	31	29	0.00063	0.00749	0.392256	1358	1358	1358	0	0	1	-360	360	-255.5622	10.9213	255.9422	-49.5392	0.0000	0.0000	0.0000	0.0000;
	63	59	0.010479	0.060969	0.092047	316	316	316	0	0	1	-360	360	9.2310	4.8624	-9.2141	-15.7780	0.0000	0.0000	0.0000	0.0000;
	61	56	0.00882	0.065641	0.100662	274	274	274	0	0	1	-360	360	-21.0696	14.6168	21.1329	-26.2960	0.0000	0.0000	0.0000	0.0000;
	67	35	0.011219	0.065581	0.098349	274	274	274	0	0	1	-360	360	-1.6058	-10.5705	1.6081	-1.1332	0.0000	0.0000	0.0000	0.0000;
	51	35	0.01163	0.07031	0.105802	377	377	377	0	0	1	-360	360	-6.2016	-16.8814	6.2166	4.4190	0.0000	0.0000	0.0000	0.0000;
	59	43	0.00545	0.040211	0.066986	446	446	446	0	0	1	-360	360	-55.1829	-17.3451	55.3306	10.4113	0.0000	0.0000	0.0000	0.0000;
	60	44	0.00545	0.040211	0.066986	446	446	446	0	0	1	-360	360	-55.7215	-16.9508	55.8714	10.0334	0.0000	0.0000	0.0000	0.0000;
	60	35	0.00837	0.04868	0.073481	419	419	419	0	0	1	-360	360	12.3850	-11.9308	-12.3702	3.2578	0.0000	0.0000	0.0000	0.0000;
	68	52	0.003159	0.02076	0.03146	415	415	415	0	0	1	-360	360	66.0943	-15.3162	-65.9722	12.4148	0.0000	0.0000	0.0000	0.0000;
	52	39	0.006979	0.051961	0.079666	373	373	373	0	0	1	-360	360	34.7306	-8.8838	-34.6581	0.0379	0.0000	0.0000	0.0000	0.0000;
	37	56	0.00374	0.027831	0.042689	274	274	274	0	0	1	-360	360	-65.6161	-4.2184	65.7516	0.1365	0.0000	0.0000	0.0000	0.0000;
	38	36	0.00769	0.057271	0.087894	373	373	373	0	0	1	-360	360	36.7668	7.6437	-36.6687	-17.2779	0.0000	0.0000	0.0000	0.0000;
	55	38	0.00556	0.04145	0.063598	427	427	427	0	0	1	-360	360	44.2949	-1.8660	-44.2034	-5.0356	0.0000	0.0000	0.0000	0.0000;
	67	37	0.004521	0.03368	0.051691	392	392	392	0	0	1	-360	360	-35.6707	0.1847	35.7195	-5.9656	0.0000	0.0000	0.0000	0.0000;
	67	66	0.00151	0.008781	0.013165	377	377	377	0	0	1	-360	360	37.2765	10.3859	-37.2572	-11.8361	0.0000	0.0000	0.0000	0.0000;
	62	43	0.00574	0.042831	0.065727	446	446	446	0	0	1	-360	360	-39.3195	-1.4247	39.3935	-5.9441	0.0000	0.0000	0.0000	0.0000;
	63	44	0.00707	0.045409	0.069309	347	347	347	0	0	1	-360	360	-37.6766	-0.8206	37.7606	-6.9919	0.0000	0.0000	0.0000	0.0000;
	62	40	0.01213	0.062151	0.093712	347	347	347	0	0	1	-360	360	-27.5674	-22.6977	27.6733	11.8263	0.0000	0.0000	0.0000	0.0000;
	61	41	0.002479	0.017979	0.027588	373	373	373	0	0	1	-360	360	-68.9918	-28.6490	69.1034	26.0783	0.0000	0.0000	0.0000	0.0000;
	47	40	0.002401	0.01494	0.022525	377	377	377	0	0	1	-360	360	-61.7632	-0.6312	61.8378	-1.6773	0.0000	0.0000	0.0000	0.0000;
	50	46	0.00167	0.0189	0.54176	1358	1358	1358	0	0	1	-360	360	-49.7099	-46.6947	49.7541	-10.3324	0.0000	0.0000	0.0000	0.0000;
	58	54	0.00109	0.01277	0.34176	1358	1358	1358	0	0	1	-360	360	54.1058	2.3018	-54.0719	-38.7541	0.0000	0.0000	0.0000	0.0000;
	42	58	0.002259	0.026439	0.70784	1358	1358	1358	0	0	1	-360	360	3.3255	-89.9010	-3.2659	15.0363	0.0000	0.0000	0.0000	0.0000;
	64	58	0.00094	0.01097	0.29376	1552	1552	1552	0	0	1	-360	360	-210.1538	-1.0405	210.5400	-26.2027	0.0000	0.0000	0.0000	0.0000;
	48	65	0.00113	0.01406	0.37488	831	831	831	0	0	1	-360	360	-313.3425	-67.5408	314.4158	40.8213	0.0000	0.0000	0.0000	0.0000;
	53	45	0.00176	0.02144	0.57344	1358	1358	1358	0	0	1	-360	360	-65.2482	-4.5615	65.3292	-55.8424	0.0000	0.0000	0.0000	0.0000;
	96	125	0.004876	0.033616	0.059609	446	446	446	0	0	1	-360	360	-48.0795	-10.1625	48.1734	3.4930	0.0000	0.0000	0.0000	0.0000;
	75	106	0.01093	0.059194	0.08439	290	290	290	0	0	1	-360	360	-4.9342	5.6478	4.9469	-15.8371	0.0000	0.0000	0.0000	0.0000;
	106	94	0.001942	0.013926	0.022845	446	446	446	0	0	1	-360	360	19.8606	-19.5597	-19.8489	16.8747	0.0000	0.0000	0.0000	0.0000;
	79	85	0.004318	0.029752	0.05264	373	373	373	0	0	1	-360	360	-94.8378	-5.8111	95.1603	1.6607	0.0000	0.0000	0.0000	0.0000;
	131	130	0.000661	0.004959	0.007579	419	419	419	0	0	1	-360	360	79.1621	17.2948	-79.1261	-17.9396	0.0000	0.0000	0.0000	0.0000;
	107	131	0.005372	0.040393	0.060055	419	419	419	0	0	1	-360	360	-69.0922	7.5411	69.3097	-13.1656	0.0000	0.0000	0.0000	0.0000;
	91	131	0.000826	0.005248	0.008683	305	305	305	0	0	1	-360	360	148.6226	4.0364	-148.4718	-4.1292	0.0000	0.0000	0.0000	0.0000;
	100	119	0.015888	0.087603	0.116818	347	347	347	0	0	1	-360	360	-28.3231	-4.3975	28.4298	-9.1182	0.0000	0.0000	0.0000	0.0000;
	81	113	0.002169	0.014587	0.025749	316	316	316	0	0	1	-360	360	33.2741	-4.0522	-33.2539	1.1119	0.0000	0.0000	0.0000	0.0000;
	116	101	0.017727	0.116777	0.163611	290	290	290	0	0	1	-360	360	32.9018	-16.0432	-32.7363	-2.5452	0.0000	0.0000	0.0000	0.0000;
	126	74	0.00593	0.04093	0.072145	446	446	446	0	0	1	-360	360	52.7950	1.3244	-52.6592	-9.2373	0.0000	0.0000	0.0000	0.0000;
	108	90	0.003905	0.028471	0.044983	427	427	427	0	0	1	-360	360	-226.7062	15.4487	228.3888	-8.6058	0.0000	0.0000	0.0000	0.0000;
	118	79	0.008161	0.042417	0.061197	385	385	385	0	0	1	-360	360	-20.5223	5.6581	20.5566	-12.8697	0.0000	0.0000	0.0000	0.0000;
	119	78	0.008161	0.042417	0.061197	385	385	385	0	0	1	-360	360	-47.6522	14.8475	47.8286	-21.3112	0.0000	0.0000	0.0000	0.0000;
	79	76	0.005186	0.038388	0.058748	492	492	492	0	0	1	-360	360	263.3659	-27.4010	-260.3571	42.5930	0.0000	0.0000	0.0000	0.0000;
	78	73	0.002128	0.014029	0.022603	335	335	335	0	0	1	-360	360	156.0306	-9.3930	-155.5985	9.5285	0.0000	0.0000	0.0000	0.0000;
	114	78	0.004628	0.027748	0.046115	362	362	362	0	0	1	-360	360	-46.7812	-8.8255	46.8674	3.8164	0.0000	0.0000	0.0000	0.0000;
	103	72	0.011219	0.070744	0.115705	290	290	290	0	0	1	-360	360	-102.5236	15.9983	103.5530	-23.3991	0.0000	0.0000	0.0000	0.0000;
	110	117	0.006012	0.041467	0.073636	427	427	427	0	0	1	-360	360	-54.5224	-0.7785	54.6724	-7.0130	0.0000	0.0000	0.0000	0.0000;
	91	69	0.002066	0.012789	0.020551	316	316	316	0	0	1	-360	360	61.8334	7.9483	-61.7667	-10.0203	0.0000	0.0000	0.0000	0.0000;
	86	90	0.001364	0.009731	0.016243	457	457	457	0	0	1	-360	360	-96.5661	-12.1143	96.6729	10.9127	0.0000	0.0000	0.0000	0.0000;
	129	87	0.000579	0.004112	0.007008	446	446	446	0	0	1	-360	360	-52.4044	-2.3001	52.4176	1.5486	0.0000	0.0000	0.0000	0.0000;
	132	76	0.000847	0.00624	0.009544	457	457	457	0	0	1	-360	360	-271.9990	62.0010	272.5452	-59.1285	0.0000	0.0000	0.0000	0.0000;
	133	77	0.000847	0.00626	0.009477	457	457	457	0	0	1	-360	360	-266.5000	24.8000	267.0044	-22.2131	0.0000	0.0000	0.0000	0.0000;
	102	77	0.001591	0.011116	0.019128	492	492	492	0	0	1	-360	360	145.9804	-29.1750	-145.6882	28.9134	0.0000	0.0000	0.0000	0.0000;
	125	104	0.003141	0.021591	0.038391	446	446	446	0	0	1	-360	360	100.8522	5.1206	-100.5914	-8.0410	0.0000	0.0000	0.0000	0.0000;
	126	111	0.004545	0.03157	0.055312	373	373	373	0	0	1	-360	360	131.4413	36.0632	-130.7465	-37.9535	0.0000	0.0000	0.0000	0.0000;
	104	84	0.001446	0.009917	0.017598	373	373	373	0	0	1	-360	360	137.1221	15.4399	-136.8966	-16.0389	0.0000	0.0000	0.0000	0.0000;
	105	95	0.003822	0.026674	0.046154	373	373	373	0	0	1	-360	360	-2.1312	14.1347	2.1403	-19.6949	0.0000	0.0000	0.0000	0.0000;
	112	80	0.007769	0.041281	0.063907	316	316	316	0	0	1	-360	360	43.4843	-9.6527	-43.3593	2.6743	0.0000	0.0000	0.0000	0.0000;
	89	78	0.004463	0.030413	0.048671	290	290	290	0	0	1	-360	360	53.9822	-20.1319	-53.8624	15.1110	0.0000	0.0000	0.0000	0.0000;
	117	108	0.005888	0.035062	0.052349	290	290	290	0	0	1	-360	360	-30.7857	2.4064	30.8337	-8.4053	0.0000	0.0000	0.0000	0.0000;
	109	99	0.003161	0.023409	0.036165	373	373	373	0	0	1	-360	360	40.4926	-10.3316	-40.4477	6.3202	0.0000	0.0000	0.0000	0.0000;
	116	79	0.001839	0.012603	0.022399	373	373	373	0	0	1	-360	360	34.7925	-24.6322	-34.7657	22.1215	0.0000	0.0000	0.0000	0.0000;
	107	88	0.001715	0.009607	0.014239	335	335	335	0	0	1	-360	360	171.1532	37.9465	-170.7164	-37.2128	0.0000	0.0000	0.0000	0.0000;
	98	79	0.003409	0.024421	0.039969	290	290	290	0	0	1	-360	360	23.3364	-12.6400	-23.3180	7.9613	0.0000	0.0000	0.0000	0.0000;
	117	78	0.001839	0.012603	0.02239	373	373	373	0	0	1	-360	360	-56.0885	0.5400	56.1368	-2.8994	0.0000	0.0000	0.0000	0.0000;
	83	97	0.005702	0.041488	0.066172	446	446	446	0	0	1	-360	360	9.1604	-7.5392	-9.1560	-0.5136	0.0000	0.0000	0.0000	0.0000;
	124	118	0.004587	0.024628	0.036165	347	347	347	0	0	1	-360	360	-40.2062	-19.8240	40.2801	15.8678	0.0000	0.0000	0.0000	0.0000;
	124	110	0.002149	0.013327	0.022109	290	290	290	0	0	1	-360	360	-4.1216	2.0166	4.1221	-4.6599	0.0000	0.0000	0.0000	0.0000;
	100	71	0.000785	0.004876	0.00726	316	316	316	0	0	1	-360	360	11.3319	1.5607	-11.3310	-2.4300	0.0000	0.0000	0.0000	0.0000;
	101	70	0.000785	0.004876	0.007241	316	316	316	0	0	1	-360	360	6.8003	-0.8705	-6.8000	-0.0000	0.0000	0.0000	0.0000	0.0000;
	93	127	0.002413	0.027544	0.767968	831	831	831	0	0	1	-360	360	102.8944	-14.5268	-102.6455	-66.4621	0.0000	0.0000	0.0000	0.0000;
	82	127	0.002462	0.028525	0.7616	1621	1621	1621	0	0	1	-360	360	109.5574	-33.7558	-109.2851	-45.8223	0.0000	0.0000	0.0000	0.0000;
	122	115	0.000913	0.0104	0.289888	1358	1358	1358	0	0	1	-360	360	-24.6748	19.5074	24.6904	-50.7896	0.0000	0.0000	0.0000	0.0000;
	123	121	0.003119	0.035631	0.991072	831	831	831	0	0	1	-360	360	224.0760	-64.0525	-222.6347	-27.3400	0.0000	0.0000	0.0000	0.0000;
	115	128	0.000919	0.010512	0.292928	1358	1358	1358	0	0	1	-360	360	-189.4759	2.2477	189.7836	-30.4167	0.0000	0.0000	0.0000	0.0000;
	174	156	0.01545	0.073349	0.126614	461	461	461	0	0	1	-360	360	-185.6538	15.1774	190.3755	-7.5123	0.0000	0.0000	0.0000	0.0000;
	175	155	0.01545	0.073349	0.126614	461	461	461	0	0	1	-360	360	-187.1068	15.4888	191.9035	-7.4700	0.0000	0.0000	0.0000	0.0000;
	177	155	0.01457	0.07955	0.14007	362	362	362	0	0	1	-360	360	-42.4225	-4.1096	42.6470	-11.2325	0.0000	0.0000	0.0000	0.0000;
	178	156	0.01457	0.07955	0.14007	362	362	362	0	0	1	-360	360	-40.8506	-4.2165	41.0587	-11.2130	0.0000	0.0000	0.0000	0.0000;
	177	144	0.006031	0.04401	0.069793	373	373	373	0	0	1	-360	360	-36.9478	-9.8872	37.0193	2.1434	0.0000	0.0000	0.0000	0.0000;
	166	140	0.011031	0.08057	0.124127	446	446	446	0	0	1	-360	360	139.8304	-25.0869	-138.0221	23.2045	0.0000	0.0000	0.0000	0.0000;
	137	155	0.005831	0.04231	0.070664	427	427	427	0	0	1	-360	360	-83.8687	-3.0425	84.2175	-2.7739	0.0000	0.0000	0.0000	0.0000;
	171	174	0.01849	0.095599	0.159139	305	305	305	0	0	1	-360	360	-45.6731	46.9971	46.4705	-61.7813	0.0000	0.0000	0.0000	0.0000;
	152	175	0.010581	0.053	0.088475	415	415	415	0	0	1	-360	360	-54.5210	47.2662	55.0319	-55.0204	0.0000	0.0000	0.0000	0.0000;
	154	156	0.012521	0.091359	0.145394	457	457	457	0	0	1	-360	360	-166.7316	17.6620	169.7766	-12.5806	0.0000	0.0000	0.0000	0.0000;
	136	137	0.00506	0.036539	0.063598	305	305	305	0	0	1	-360	360	-28.7770	-8.4512	28.8138	1.2566	0.0000	0.0000	0.0000	0.0000;
	148	143	0.01043	0.077891	0.122065	427	427	427	0	0	1	-360	360	-14.0197	-8.0775	14.0372	-6.1827	0.0000	0.0000	0.0000	0.0000;
	153	181	0.007711	0.056961	0.088378	373	373	373	0	0	1	-360	360	7.2148	21.1922	-7.1656	-31.0432	0.0000	0.0000	0.0000	0.0000;
	171	147	0.018599	0.09638	0.140941	290	290	290	0	0	1	-360	360	-137.9937	36.6718	141.1793	-37.3882	0.0000	0.0000	0.0000	0.0000;
	176	170	0.00244	0.01318	0.021296	377	377	377	0	0	1	-360	360	-39.4029	-8.6850	39.4349	6.2378	0.0000	0.0000	0.0000	0.0000;
	170	140	0.00355	0.02593	0.041237	446	446	446	0	0	1	-360	360	-76.6043	32.3030	76.8084	-35.8681	0.0000	0.0000	0.0000	0.0000;
	171	168	0.01312	0.076219	0.116644	362	362	362	0	0	1	-360	360	126.1648	-20.8937	-124.4495	16.5151	0.0000	0.0000	0.0000	0.0000;
	170	152	0.009341	0.05225	0.087701	305	305	305	0	0	1	-360	360	-28.5545	43.5658	28.7981	-52.8110	0.0000	0.0000	0.0000	0.0000;
	146	135	0.006141	0.032521	0.052456	385	385	385	0	0	1	-360	360	-218.2014	26.6329	220.6583	-20.0121	0.0000	0.0000	0.0000	0.0000;
	147	134	0.00438	0.03188	0.050723	457	457	457	0	0	1	-360	360	-226.9119	16.2382	228.7857	-8.7792	0.0000	0.0000	0.0000	0.0000;
...